Version 4
SHEET 1 880 728
WIRE -80 128 -176 128
WIRE -176 144 -176 128
WIRE -80 144 -80 128
WIRE 128 144 -80 144
WIRE -80 176 -80 144
WIRE -80 176 -128 176
WIRE 128 176 128 144
WIRE 160 176 128 176
WIRE 480 192 352 192
WIRE -80 208 -80 176
WIRE 128 208 128 176
WIRE 352 208 352 192
WIRE -128 240 -128 176
WIRE -80 240 -128 240
WIRE 160 240 160 176
WIRE 160 240 128 240
WIRE 16 256 -16 256
WIRE 64 256 16 256
WIRE -176 272 -176 224
WIRE 480 304 480 272
WIRE -80 336 -80 304
WIRE 16 336 16 256
WIRE 16 336 -80 336
WIRE 128 352 128 304
WIRE 256 352 128 352
WIRE 288 352 288 256
WIRE 288 352 256 352
WIRE 352 352 352 304
WIRE 368 352 352 352
WIRE 384 352 368 352
WIRE 480 352 448 352
WIRE 512 352 480 352
WIRE 128 368 128 352
WIRE 128 368 16 368
WIRE -80 384 -80 336
WIRE 352 384 352 352
WIRE 128 400 128 368
WIRE 512 464 512 432
WIRE 16 512 16 432
WIRE 64 512 16 512
WIRE 128 512 128 480
WIRE 128 512 64 512
WIRE 256 512 128 512
WIRE 288 512 288 432
WIRE 288 512 256 512
WIRE -80 528 -80 464
WIRE 352 528 352 480
WIRE 64 544 64 512
WIRE 64 688 64 624
FLAG 352 528 0
FLAG 512 464 0
FLAG 480 304 0
FLAG 368 352 Vx
FLAG 480 352 Vo
FLAG -80 528 0
FLAG 64 688 0
FLAG -176 272 0
FLAG 256 352 Vg1
FLAG 256 512 Vg2
SYMBOL cap 448 336 R90
WINDOW 0 0 32 VBottom 2
WINDOW 3 32 32 VTop 2
SYMATTR InstName Cs
SYMATTR Value 398µ
SYMBOL res 496 336 R0
SYMATTR InstName RL
SYMATTR Value 8
SYMBOL IRF510 288 208 R0
SYMATTR InstName U1
SYMBOL IRF9510 288 384 R0
SYMATTR InstName U2
SYMBOL voltage 480 176 R0
SYMATTR InstName Vdd
SYMATTR Value 12
SYMBOL ALD1102 64 208 R0
SYMATTR InstName M1
SYMBOL ALD1102 -16 208 M0
SYMATTR InstName M2
SYMBOL voltage -176 128 R0
SYMATTR InstName Vd1
SYMATTR Value 12
SYMBOL cap 0 368 R0
SYMATTR InstName C1
SYMATTR Value 10µ
SYMBOL Misc/signal 64 528 R0
SYMATTR InstName V1
SYMATTR Value SINE(2.5 1.25 1K)
SYMBOL res 112 384 R0
SYMATTR InstName R1
SYMATTR Value 7k
SYMBOL res -96 368 R0
SYMATTR InstName R2
SYMATTR Value 10k
TEXT 584 672 Left 2 !.tran 20m
TEXT 592 616 Left 2 !.lib ./ECE331_354.lib
TEXT 592 712 Left 2 !.lib ./pot.lib
