Version 4
SHEET 1 1088 760
WIRE 448 96 352 96
WIRE 528 96 448 96
WIRE 272 144 272 96
WIRE 448 144 448 96
WIRE 608 192 608 96
WIRE 272 240 272 224
WIRE 272 240 112 240
WIRE 544 240 272 240
WIRE 112 256 112 240
WIRE 272 256 272 240
WIRE 112 352 112 320
WIRE 112 352 -80 352
WIRE 272 352 272 336
WIRE 400 352 272 352
WIRE 608 352 608 288
WIRE 608 352 480 352
WIRE 656 352 608 352
WIRE 672 352 656 352
WIRE -80 368 -80 352
WIRE 272 384 272 352
WIRE 112 416 112 352
WIRE 608 432 608 352
WIRE 272 480 272 464
WIRE 272 480 112 480
WIRE 544 480 272 480
WIRE -80 496 -80 448
WIRE 272 496 272 480
WIRE 608 624 608 528
WIRE 720 624 688 624
WIRE 192 640 160 640
WIRE 272 640 272 576
WIRE 720 640 720 624
WIRE 160 672 160 640
FLAG 160 672 0
FLAG 720 640 0
FLAG 448 144 0
FLAG 656 352 Vo
FLAG -80 496 0
SYMBOL voltage 256 96 R270
WINDOW 0 32 56 VTop 2
WINDOW 3 -32 56 VBottom 2
SYMATTR InstName V1
SYMATTR Value 5
SYMBOL voltage 624 96 R90
WINDOW 0 -32 56 VBottom 2
WINDOW 3 32 56 VTop 2
SYMATTR InstName V2
SYMATTR Value 5
SYMBOL voltage 704 624 R90
WINDOW 0 -32 56 VBottom 2
WINDOW 3 32 56 VTop 2
SYMATTR InstName V3
SYMATTR Value 5
SYMBOL voltage 176 640 R270
WINDOW 0 32 56 VTop 2
WINDOW 3 -32 56 VBottom 2
SYMATTR InstName V4
SYMATTR Value 5
SYMBOL res 256 128 R0
WINDOW 0 30 47 Left 2
SYMATTR InstName R1
SYMATTR Value 275k
SYMBOL res 256 240 R0
SYMATTR InstName R2
SYMATTR Value 100k
SYMBOL res 256 368 R0
SYMATTR InstName R3
SYMATTR Value 100k
SYMBOL res 256 480 R0
SYMATTR InstName R4
SYMATTR Value 333k
SYMBOL res 496 336 R90
WINDOW 0 0 56 VBottom 2
WINDOW 3 32 56 VTop 2
SYMATTR InstName R5
SYMATTR Value 5k
SYMBOL IRF9510 544 192 R0
SYMATTR InstName U1
SYMBOL IRF510 544 432 R0
SYMATTR InstName U2
SYMBOL cap 96 256 R0
SYMATTR InstName C1
SYMATTR Value 10µ
SYMBOL cap 96 416 R0
SYMATTR InstName C2
SYMATTR Value 10µ
SYMBOL Misc/signal -80 352 R0
SYMATTR InstName V5
SYMATTR Value SINE(0 0.5 1K)
TEXT 856 744 Left 2 !.lib ./ECE331_354.lib
TEXT 864 696 Left 2 !.tran 0 50m 0 1u
