Version 4
SHEET 1 908 680
WIRE 224 144 192 144
WIRE 192 176 192 144
WIRE 304 208 304 144
WIRE 240 256 128 256
WIRE 112 352 16 352
WIRE 128 352 128 256
WIRE 128 352 112 352
WIRE 160 352 128 352
WIRE 304 352 304 304
WIRE 304 352 240 352
WIRE 320 352 304 352
WIRE 336 352 320 352
WIRE 304 384 304 352
WIRE 128 432 128 352
WIRE 240 432 128 432
WIRE 16 464 16 432
WIRE 304 544 304 480
WIRE 416 544 384 544
WIRE 416 576 416 544
FLAG 192 176 0
FLAG 416 576 0
FLAG 112 352 Vin
FLAG 320 352 Vo
FLAG 16 464 0
SYMBOL res 256 336 R90
WINDOW 0 0 56 VBottom 2
WINDOW 3 32 56 VTop 2
SYMATTR InstName R1
SYMATTR Value 5k
SYMBOL voltage 320 144 R90
WINDOW 0 -32 56 VBottom 2
WINDOW 3 32 56 VTop 2
SYMATTR InstName V1
SYMATTR Value 5
SYMBOL voltage 400 544 R90
WINDOW 0 -32 56 VBottom 2
WINDOW 3 32 56 VTop 2
SYMATTR InstName V2
SYMATTR Value 5
SYMBOL IRF9510 240 208 R0
SYMATTR InstName U1
SYMBOL IRF510 240 384 R0
SYMATTR InstName U2
SYMBOL Misc/signal 16 336 R0
WINDOW 3 -172 97 Left 2
SYMATTR Value SINE(0 0.5 1K)
SYMATTR InstName V3
SYMATTR Value2 AC 0 0
TEXT 640 640 Left 2 !.lib ./ECE331_354.lib
TEXT 648 544 Left 2 !;.ac dec 200 10 10000
TEXT 672 600 Left 2 !.tran 50m
